
**** 02/19/14 22:07:43 ******* PSpice 10.5.0 (Jan 2005) ******* ID# 2090074177 
 ** Profile: "SCHEMATIC1-DITHER_RAS"  [ c:\orcad\_orcadwork\pspice\dither_ras\dither_ras-pspicefiles\schematic1\dither_ras.sim ] 


 ****     CIRCUIT DESCRIPTION


******************************************************************************




** Creating circuit file "DITHER_RAS.cir" 
** WARNING: THIS AUTOMATICALLY GENERATED FILE MAY BE OVERWRITTEN BY SUBSEQUENT SIMULATIONS

*Libraries: 
* Profile Libraries :
* Local Libraries :
* From [PSPICE NETLIST] section of C:\OrCAD\tools\PSpice\PSpice.ini file:
.lib "nom.lib" 

*Analysis directives: 
.TRAN  0 500ms 400ms 1 
.OPTIONS PIVTOL= 1.0E-12
.OPTIONS SOLVER= 0
.PROBE V(alias(*)) I(alias(*)) 
.INC "..\SCHEMATIC1.net" 



**** INCLUDING SCHEMATIC1.net ****
* source DITHER_RAS
V_V2         +V 0 5v
C_C12         N57943 N57931  100p  
C_C13         0 N57931  100n  
C_C6         0 N38290  39n  
C_C10         N58453 N57891  1uF  
C_C14         +V 0  100n  
X_U4A         N57931 N57943 +V 0 N58063 LM358
R_R10         N57895 N57931  332  
C_C3         N20508 N61779  12n  
R_R14         N57931 N58063  1000k  
C_C15         N57891 N58221  1n  
C_C4         0 N20508  1n  
X_U3B         N20508 N58221 +V 0 N57891 LM358
R_R5         0 N38290  649k  
R_R16         N20508 N57895  255k  
R_R17         N58221 N57891  255k  
R_R12         N58453 N57931  20k  
R_R13         N58453 N57943  20k  
R_R4         N38290 N61779  649k  
V_V1         N38290 0  
+SIN 1v 10v 500Hz 0 0 0
D_D2         N57943 N57931 D1N4148 
D_D3         N57931 N57943 D1N4148 

**** RESUMING DITHER_RAS.cir ****
.END

**** 02/19/14 22:07:43 ******* PSpice 10.5.0 (Jan 2005) ******* ID# 2090074177 
 ** Profile: "SCHEMATIC1-DITHER_RAS"  [ c:\orcad\_orcadwork\pspice\dither_ras\dither_ras-pspicefiles\schematic1\dither_ras.sim ] 


 ****     Diode MODEL PARAMETERS


******************************************************************************




               D1N4148         X_U4A.x_lm358.dx 
          IS    2.682000E-09  800.000000E-18 
           N    1.836                        
         ISR    1.565000E-09                 
         IKF     .04417                      
          BV  100                            
         IBV  100.000000E-06                 
          RS     .5664          1            
          TT   11.540000E-09                 
         CJO    4.000000E-12                 
          VJ     .5                          
           M     .3333                       


               X_U4A.x_lm358.dy 
          IS  800.000000E-18 
          RS    1.000000E-03 
         CJO   10.000000E-12 


               X_U3B.x_lm358.dx 
          IS  800.000000E-18 
          RS    1            


               X_U3B.x_lm358.dy 
          IS  800.000000E-18 
          RS    1.000000E-03 
         CJO   10.000000E-12 


**** 02/19/14 22:07:43 ******* PSpice 10.5.0 (Jan 2005) ******* ID# 2090074177 
 ** Profile: "SCHEMATIC1-DITHER_RAS"  [ c:\orcad\_orcadwork\pspice\dither_ras\dither_ras-pspicefiles\schematic1\dither_ras.sim ] 


 ****     BJT MODEL PARAMETERS


******************************************************************************




               X_U4A.x_lm358.qx 
               PNP             
       LEVEL    1            
          IS  800.000000E-18 
          BF  166.7          
          NF    1            
          BR    1            
          NR    1            
         ISS    0            
          RE    0            
          RC    0            
         CJE    0            
         VJE     .75         
         CJC    0            
         VJC     .75         
         MJC     .33         
        XCJC    1            
         CJS    0            
         VJS     .75         
          KF    0            
          AF    1            
          CN    2.2          
           D     .52         


               X_U3B.x_lm358.qx 
               PNP             
       LEVEL    1            
          IS  800.000000E-18 
          BF  166.7          
          NF    1            
          BR    1            
          NR    1            
         ISS    0            
          RE    0            
          RC    0            
         CJE    0            
         VJE     .75         
         CJC    0            
         VJC     .75         
         MJC     .33         
        XCJC    1            
         CJS    0            
         VJS     .75         
          KF    0            
          AF    1            
          CN    2.2          
           D     .52         


**** 02/19/14 22:07:43 ******* PSpice 10.5.0 (Jan 2005) ******* ID# 2090074177 
 ** Profile: "SCHEMATIC1-DITHER_RAS"  [ c:\orcad\_orcadwork\pspice\dither_ras\dither_ras-pspicefiles\schematic1\dither_ras.sim ] 


 ****     Current Controlled Switch MODEL PARAMETERS


******************************************************************************




               X_U4A.x_lm358.sw2 
         RON    1            
        ROFF   10.000000E+06 
         ION    0            
        IOFF   -1.000000E-06 


               X_U4A.x_lm358.sw1 
         RON    1            
        ROFF   10.000000E+06 
         ION   -1.000000E-06 
        IOFF    0            


               X_U4A.x_lm358.sw3 
         RON    1            
        ROFF   10.000000E+06 
         ION   -1.000000E-06 
        IOFF    0            


               X_U4A.x_lm358.sw4 
         RON    1            
        ROFF   10.000000E+06 
         ION    0            
        IOFF   -1.000000E-06 


               X_U3B.x_lm358.sw2 
         RON    1            
        ROFF   10.000000E+06 
         ION    0            
        IOFF   -1.000000E-06 


               X_U3B.x_lm358.sw1 
         RON    1            
        ROFF   10.000000E+06 
         ION   -1.000000E-06 
        IOFF    0            


               X_U3B.x_lm358.sw3 
         RON    1            
        ROFF   10.000000E+06 
         ION   -1.000000E-06 
        IOFF    0            


               X_U3B.x_lm358.sw4 
         RON    1            
        ROFF   10.000000E+06 
         ION    0            
        IOFF   -1.000000E-06 


**** 02/19/14 22:07:43 ******* PSpice 10.5.0 (Jan 2005) ******* ID# 2090074177 
 ** Profile: "SCHEMATIC1-DITHER_RAS"  [ c:\orcad\_orcadwork\pspice\dither_ras\dither_ras-pspicefiles\schematic1\dither_ras.sim ] 


 ****     INITIAL TRANSIENT SOLUTION       TEMPERATURE =   27.000 DEG C


******************************************************************************



 NODE   VOLTAGE     NODE   VOLTAGE     NODE   VOLTAGE     NODE   VOLTAGE


(   +V)    5.0000  (N20508)     .2089 (N38290)    1.0000 (N57891)     .1980     

(N57895)     .1973 (N57931)     .1972 (N57943)     .1990 (N58063)     .0608     

(N58221)     .2095 (N58453)     .1981 (N61779)    1.0000                        

(X_U3B.x_lm358.6) 547.6E-06           (X_U3B.x_lm358.7)     .1968               

(X_U3B.x_lm358.8)     .1968           (X_U3B.x_lm358.9)    0.0000               

(X_U3B.x_lm358.a) 24.60E-06           (X_U3B.x_lm358.b) 24.10E-06               

(X_U4A.x_lm358.6)     .0233           (X_U4A.x_lm358.7)    -.1809               

(X_U4A.x_lm358.8)    -.1809           (X_U4A.x_lm358.9)    0.0000               

(X_U4A.x_lm358.a)     .0048           (X_U4A.x_lm358.b)     .0048               

(X_U3B.x_lm358.10)     .8173          (X_U3B.x_lm358.11)     .0398              

(X_U3B.x_lm358.12)     .0404          (X_U3B.x_lm358.13)     .8034              

(X_U3B.x_lm358.14)     .8032          (X_U3B.x_lm358.53)    3.5000              

(X_U3B.x_lm358.54)     .8220          (X_U3B.x_lm358.90)    -.0241              

(X_U3B.x_lm358.91)   40.0000          (X_U3B.x_lm358.92)  -40.0000              

(X_U3B.x_lm358.99)    2.5000          (X_U4A.x_lm358.10)     .8063              

(X_U4A.x_lm358.11)     .0392          (X_U4A.x_lm358.12)     .0410              

(X_U4A.x_lm358.13)     .7925          (X_U4A.x_lm358.14)     .7919              

(X_U4A.x_lm358.53)    3.5000          (X_U4A.x_lm358.54)     .8220              

(X_U4A.x_lm358.90)   -4.8341          (X_U4A.x_lm358.91)   40.0000              

(X_U4A.x_lm358.92)  -40.0000          (X_U4A.x_lm358.99)    2.5000          




    VOLTAGE SOURCE CURRENTS
    NAME         CURRENT

    V_V2        -1.132E-03
    V_V1        -1.541E-06
    X_U4A.x_lm358.vb   2.331E-07
    X_U4A.x_lm358.vc   3.440E-12
    X_U4A.x_lm358.ve  -4.834E-03
    X_U4A.x_lm358.vlim  -4.834E-03
    X_U4A.x_lm358.vlp  -4.483E-11
    X_U4A.x_lm358.vln  -3.517E-11
    X_U3B.x_lm358.vb   5.476E-09
    X_U3B.x_lm358.vc   3.303E-12
    X_U3B.x_lm358.ve  -2.405E-05
    X_U3B.x_lm358.vlim  -2.410E-05
    X_U3B.x_lm358.vlp  -4.002E-11
    X_U3B.x_lm358.vln  -3.998E-11

    TOTAL POWER DISSIPATION   9.66E-03  WATTS


ERROR -- Convergence problem in transient analysis at Time =  .499
         Time step =  212.9E-15, minimum allowable step size =  500.0E-15

  These voltages failed to converge:

    V(X_U4A.x_lm358.a)        =  -419.23MV  \   105.06MV
    V(X_U4A.x_lm358.b)        =   -9.121MV  \    2.286MV

  These supply currents failed to converge:

    I(V_V2)                   =    144.01A  \    -74.46A
    I(X_U3B.x_lm358.vc)       =    52.69nA  \    52.96nA
    I(X_U3B.x_lm358.ve)       =   -41.19nA  \   -41.40nA

ERROR -- Discontinuing simulation due to convergence problem


  Last node voltages tried were:

 NODE   VOLTAGE     NODE   VOLTAGE     NODE   VOLTAGE     NODE   VOLTAGE


(   +V)    5.0000  (N20508)    2.7372 (N38290)   -2.8332 (N57891)    2.7252     

(N57895)    2.7552 (N57931)    2.7552 (N57943)    2.6824 (N58063)     .2822     

(N58221)    2.7381 (N58453)    2.6655 (N61779)    1.8447                        

(X_U3B.x_lm358.6)-41.93E-06           (X_U3B.x_lm358.7)    2.7249               

(X_U3B.x_lm358.8)    2.7249           (X_U3B.x_lm358.9)    0.0000               

(X_U3B.x_lm358.a) 5.965E-06           (X_U3B.x_lm358.b) 5.465E-06               

(X_U4A.x_lm358.6) 404.9E-06           (X_U4A.x_lm358.7)     .2822               

(X_U4A.x_lm358.8)     .2822           (X_U4A.x_lm358.9)    0.0000               

(X_U4A.x_lm358.a)-419.2E+06           (X_U4A.x_lm358.b)-9.121E+06               

(X_U3B.x_lm358.10)    3.3453          (X_U3B.x_lm358.11)     .0392              

(X_U3B.x_lm358.12)     .0401          (X_U3B.x_lm358.13)    3.3316              

(X_U3B.x_lm358.14)    3.3312          (X_U3B.x_lm358.53)    3.5000              

(X_U3B.x_lm358.54)     .8220          (X_U3B.x_lm358.90)    -.0055              

(X_U3B.x_lm358.91)   40.0000          (X_U3B.x_lm358.92)  -40.0000              

(X_U3B.x_lm358.99)    2.5000          (X_U4A.x_lm358.10)    3.3152              

(X_U4A.x_lm358.11)     .0697          (X_U4A.x_lm358.12)     .0095              

(X_U4A.x_lm358.13)    3.2908          (X_U4A.x_lm358.14)    3.3119              

(X_U4A.x_lm358.53)    3.5000          (X_U4A.x_lm358.54)     .8220              

(X_U4A.x_lm358.90) 312.1E-06          (X_U4A.x_lm358.91)   40.0000              

(X_U4A.x_lm358.92)  -40.0000          (X_U4A.x_lm358.99)    2.5000          


**** Interrupt ****
**** Param: RELTOL = 0.001
**** Param: ABSTOL = 1e-012
**** Param: VNTOL = 1e-006
**** Param: GMIN = 1e-012
**** Param: TSTOP = 0.5
**** Param: TMAX = 1
**** Param: ITL1 = 150
**** Param: ITL2 = 20
**** Param: ITL4 = 10

 **** Published Runtime Parameters *****************************
                                                               
                                       ABSTOL =      1.0000E-12
                                     C_C10.ic =      0.0000E+00
                                  C_C10.value =      1.0000E-06
                                     C_C12.ic =      0.0000E+00
                                  C_C12.value =      1.0000E-10
                                     C_C13.ic =      0.0000E+00
                                  C_C13.value =      1.0000E-07
                                     C_C14.ic =      0.0000E+00
                                  C_C14.value =      1.0000E-07
                                     C_C15.ic =      0.0000E+00
                                  C_C15.value =      1.0000E-09
                                      C_C3.ic =      0.0000E+00
                                   C_C3.value =      1.2000E-08
                                      C_C4.ic =      0.0000E+00
                                   C_C4.value =      1.0000E-09
                                      C_C6.ic =      0.0000E+00
                                   C_C6.value =      3.9000E-08
                                    D_D2.area =      1.0000E+00
                                      D_D2.ic =      0.0000E+00
                                    D_D3.area =      1.0000E+00
                                      D_D3.ic =      0.0000E+00
                                         GMIN =      1.0000E-12
                                         ITL1 =      1.5000E+02
                                         ITL2 =      2.0000E+01
                                         ITL4 =      1.0000E+01
                                    R_R10.tc1 =      0.0000E+00
                                    R_R10.tc2 =      0.0000E+00
                                  R_R10.value =      3.3200E+02
                                    R_R12.tc1 =      0.0000E+00
                                    R_R12.tc2 =      0.0000E+00
                                  R_R12.value =      2.0000E+04
                                    R_R13.tc1 =      0.0000E+00
                                    R_R13.tc2 =      0.0000E+00
                                  R_R13.value =      2.0000E+04
                                    R_R14.tc1 =      0.0000E+00
                                    R_R14.tc2 =      0.0000E+00
                                  R_R14.value =      1.0000E+06
                                    R_R16.tc1 =      0.0000E+00
                                    R_R16.tc2 =      0.0000E+00
                                  R_R16.value =      2.5500E+05
                                    R_R17.tc1 =      0.0000E+00
                                    R_R17.tc2 =      0.0000E+00
                                  R_R17.value =      2.5500E+05
                                     R_R4.tc1 =      0.0000E+00
                                     R_R4.tc2 =      0.0000E+00
                                   R_R4.value =      6.4900E+05
                                     R_R5.tc1 =      0.0000E+00
                                     R_R5.tc2 =      0.0000E+00
                                   R_R5.value =      6.4900E+05
                                       RELTOL =      1.0000E-03
                                       RUNFOR =      0.0000E+00
                                         TMAX =      1.0000E+00
                                        TSTOP =      5.0000E-01
                                      V_V1.ac =      0.0000E+00
                                 V_V1.acphase =      0.0000E+00
                                      V_V1.dc =      1.0000E+00
                                      V_V2.ac =      0.0000E+00
                                 V_V2.acphase =      0.0000E+00
                                      V_V2.dc =      5.0000E+00
                                        VNTOL =      1.0000E-06
                          X_U3B.x_lm358.c1.ic =      0.0000E+00
                       X_U3B.x_lm358.c1.value =      2.8870E-12
                          X_U3B.x_lm358.c2.ic =      0.0000E+00
                       X_U3B.x_lm358.c2.value =      3.0000E-11
                        X_U3B.x_lm358.dc.area =      1.0000E+00
                          X_U3B.x_lm358.dc.ic =      0.0000E+00
                        X_U3B.x_lm358.de.area =      1.0000E+00
                          X_U3B.x_lm358.de.ic =      0.0000E+00
                       X_U3B.x_lm358.dln.area =      1.0000E+00
                         X_U3B.x_lm358.dln.ic =      0.0000E+00
                       X_U3B.x_lm358.dlp.area =      1.0000E+00
                         X_U3B.x_lm358.dlp.ic =      0.0000E+00
                        X_U3B.x_lm358.dp.area =      1.0000E+00
                          X_U3B.x_lm358.dp.ic =      0.0000E+00
                      X_U3B.x_lm358.fneg.gain =     -1.0000E+00
                      X_U3B.x_lm358.fpos.gain =      1.0000E+00
                        X_U3B.x_lm358.ga.gain =      1.8850E-04
                       X_U3B.x_lm358.gcm.gain =      5.9610E-08
                      X_U3B.x_lm358.hlim.gain =      1.0000E+03
                         X_U3B.x_lm358.iee.ac =      0.0000E+00
                    X_U3B.x_lm358.iee.acphase =      0.0000E+00
                         X_U3B.x_lm358.iee.dc =      1.5090E-05
                         X_U3B.x_lm358.r2.tc1 =      0.0000E+00
                         X_U3B.x_lm358.r2.tc2 =      0.0000E+00
                       X_U3B.x_lm358.r2.value =      1.0000E+05
                        X_U3B.x_lm358.rc1.tc1 =      0.0000E+00
                        X_U3B.x_lm358.rc1.tc2 =      0.0000E+00
                      X_U3B.x_lm358.rc1.value =      5.3050E+03
                        X_U3B.x_lm358.rc2.tc1 =      0.0000E+00
                        X_U3B.x_lm358.rc2.tc2 =      0.0000E+00
                      X_U3B.x_lm358.rc2.value =      5.3050E+03
                        X_U3B.x_lm358.re1.tc1 =      0.0000E+00
                        X_U3B.x_lm358.re1.tc2 =      0.0000E+00
                      X_U3B.x_lm358.re1.value =      1.8450E+03
                        X_U3B.x_lm358.re2.tc1 =      0.0000E+00
                        X_U3B.x_lm358.re2.tc2 =      0.0000E+00
                      X_U3B.x_lm358.re2.value =      1.8450E+03
                        X_U3B.x_lm358.ree.tc1 =      0.0000E+00
                        X_U3B.x_lm358.ree.tc2 =      0.0000E+00
                      X_U3B.x_lm358.ree.value =      1.3250E+07
                        X_U3B.x_lm358.ro1.tc1 =      0.0000E+00
                        X_U3B.x_lm358.ro1.tc2 =      0.0000E+00
                      X_U3B.x_lm358.ro1.value =      5.0000E+01
                        X_U3B.x_lm358.ro2.tc1 =      0.0000E+00
                        X_U3B.x_lm358.ro2.tc2 =      0.0000E+00
                      X_U3B.x_lm358.ro2.value =      2.5000E+01
                         X_U3B.x_lm358.rp.tc1 =      0.0000E+00
                         X_U3B.x_lm358.rp.tc2 =      0.0000E+00
                       X_U3B.x_lm358.rp.value =      9.0820E+03
                          X_U3B.x_lm358.vb.ac =      0.0000E+00
                     X_U3B.x_lm358.vb.acphase =      0.0000E+00
                          X_U3B.x_lm358.vb.dc =      0.0000E+00
                          X_U3B.x_lm358.vc.ac =      0.0000E+00
                     X_U3B.x_lm358.vc.acphase =      0.0000E+00
                          X_U3B.x_lm358.vc.dc =      1.5000E+00
                          X_U3B.x_lm358.ve.ac =      0.0000E+00
                     X_U3B.x_lm358.ve.acphase =      0.0000E+00
                          X_U3B.x_lm358.ve.dc =      8.2200E-01
                        X_U3B.x_lm358.vlim.ac =      0.0000E+00
                   X_U3B.x_lm358.vlim.acphase =      0.0000E+00
                        X_U3B.x_lm358.vlim.dc =      0.0000E+00
                         X_U3B.x_lm358.vln.ac =      0.0000E+00
                    X_U3B.x_lm358.vln.acphase =      0.0000E+00
                         X_U3B.x_lm358.vln.dc =      4.0000E+01
                         X_U3B.x_lm358.vlp.ac =      0.0000E+00
                    X_U3B.x_lm358.vlp.acphase =      0.0000E+00
                         X_U3B.x_lm358.vlp.dc =      4.0000E+01
                          X_U4A.x_lm358.c1.ic =      0.0000E+00
                       X_U4A.x_lm358.c1.value =      2.8870E-12
                          X_U4A.x_lm358.c2.ic =      0.0000E+00
                       X_U4A.x_lm358.c2.value =      3.0000E-11
                        X_U4A.x_lm358.dc.area =      1.0000E+00
                          X_U4A.x_lm358.dc.ic =      0.0000E+00
                        X_U4A.x_lm358.de.area =      1.0000E+00
                          X_U4A.x_lm358.de.ic =      0.0000E+00
                       X_U4A.x_lm358.dln.area =      1.0000E+00
                         X_U4A.x_lm358.dln.ic =      0.0000E+00
                       X_U4A.x_lm358.dlp.area =      1.0000E+00
                         X_U4A.x_lm358.dlp.ic =      0.0000E+00
                        X_U4A.x_lm358.dp.area =      1.0000E+00
                          X_U4A.x_lm358.dp.ic =      0.0000E+00
                      X_U4A.x_lm358.fneg.gain =     -1.0000E+00
                      X_U4A.x_lm358.fpos.gain =      1.0000E+00
                        X_U4A.x_lm358.ga.gain =      1.8850E-04
                       X_U4A.x_lm358.gcm.gain =      5.9610E-08
                      X_U4A.x_lm358.hlim.gain =      1.0000E+03
                         X_U4A.x_lm358.iee.ac =      0.0000E+00
                    X_U4A.x_lm358.iee.acphase =      0.0000E+00
                         X_U4A.x_lm358.iee.dc =      1.5090E-05
                         X_U4A.x_lm358.r2.tc1 =      0.0000E+00
                         X_U4A.x_lm358.r2.tc2 =      0.0000E+00
                       X_U4A.x_lm358.r2.value =      1.0000E+05
                        X_U4A.x_lm358.rc1.tc1 =      0.0000E+00
                        X_U4A.x_lm358.rc1.tc2 =      0.0000E+00
                      X_U4A.x_lm358.rc1.value =      5.3050E+03
                        X_U4A.x_lm358.rc2.tc1 =      0.0000E+00
                        X_U4A.x_lm358.rc2.tc2 =      0.0000E+00
                      X_U4A.x_lm358.rc2.value =      5.3050E+03
                        X_U4A.x_lm358.re1.tc1 =      0.0000E+00
                        X_U4A.x_lm358.re1.tc2 =      0.0000E+00
                      X_U4A.x_lm358.re1.value =      1.8450E+03
                        X_U4A.x_lm358.re2.tc1 =      0.0000E+00
                        X_U4A.x_lm358.re2.tc2 =      0.0000E+00
                      X_U4A.x_lm358.re2.value =      1.8450E+03
                        X_U4A.x_lm358.ree.tc1 =      0.0000E+00
                        X_U4A.x_lm358.ree.tc2 =      0.0000E+00
                      X_U4A.x_lm358.ree.value =      1.3250E+07
                        X_U4A.x_lm358.ro1.tc1 =      0.0000E+00
                        X_U4A.x_lm358.ro1.tc2 =      0.0000E+00
                      X_U4A.x_lm358.ro1.value =      5.0000E+01
                        X_U4A.x_lm358.ro2.tc1 =      0.0000E+00
                        X_U4A.x_lm358.ro2.tc2 =      0.0000E+00
                      X_U4A.x_lm358.ro2.value =      2.5000E+01
                         X_U4A.x_lm358.rp.tc1 =      0.0000E+00
                         X_U4A.x_lm358.rp.tc2 =      0.0000E+00
                       X_U4A.x_lm358.rp.value =      9.0820E+03
                          X_U4A.x_lm358.vb.ac =      0.0000E+00
                     X_U4A.x_lm358.vb.acphase =      0.0000E+00
                          X_U4A.x_lm358.vb.dc =      0.0000E+00
                          X_U4A.x_lm358.vc.ac =      0.0000E+00
                     X_U4A.x_lm358.vc.acphase =      0.0000E+00
                          X_U4A.x_lm358.vc.dc =      1.5000E+00
                          X_U4A.x_lm358.ve.ac =      0.0000E+00
                     X_U4A.x_lm358.ve.acphase =      0.0000E+00
                          X_U4A.x_lm358.ve.dc =      8.2200E-01
                        X_U4A.x_lm358.vlim.ac =      0.0000E+00
                   X_U4A.x_lm358.vlim.acphase =      0.0000E+00
                        X_U4A.x_lm358.vlim.dc =      0.0000E+00
                         X_U4A.x_lm358.vln.ac =      0.0000E+00
                    X_U4A.x_lm358.vln.acphase =      0.0000E+00
                         X_U4A.x_lm358.vln.dc =      4.0000E+01
                         X_U4A.x_lm358.vlp.ac =      0.0000E+00
                    X_U4A.x_lm358.vlp.acphase =      0.0000E+00
                         X_U4A.x_lm358.vlp.dc =      4.0000E+01
                                               
               

ERROR -- Convergence problem in transient analysis at Time =  .499
         Time step =  212.9E-15, minimum allowable step size =  500.0E-15

  These voltages failed to converge:

    V(X_U4A.x_lm358.a)        =  -419.23MV  \   105.06MV
    V(X_U4A.x_lm358.b)        =   -9.121MV  \    2.286MV

  These supply currents failed to converge:

    I(V_V2)                   =    144.01A  \    -74.46A
    I(X_U3B.x_lm358.vc)       =    52.69nA  \    52.96nA
    I(X_U3B.x_lm358.ve)       =   -41.19nA  \   -41.40nA

ERROR -- Discontinuing simulation due to convergence problem


  Last node voltages tried were:

 NODE   VOLTAGE     NODE   VOLTAGE     NODE   VOLTAGE     NODE   VOLTAGE


(   +V)    5.0000  (N20508)    2.7372 (N38290)   -2.8332 (N57891)    2.7252     

(N57895)    2.7552 (N57931)    2.7552 (N57943)    2.6824 (N58063)     .2822     

(N58221)    2.7381 (N58453)    2.6655 (N61779)    1.8447                        

(X_U3B.x_lm358.6)-41.93E-06           (X_U3B.x_lm358.7)    2.7249               

(X_U3B.x_lm358.8)    2.7249           (X_U3B.x_lm358.9)    0.0000               

(X_U3B.x_lm358.a) 5.965E-06           (X_U3B.x_lm358.b) 5.465E-06               

(X_U4A.x_lm358.6) 404.9E-06           (X_U4A.x_lm358.7)     .2822               

(X_U4A.x_lm358.8)     .2822           (X_U4A.x_lm358.9)    0.0000               

(X_U4A.x_lm358.a)-419.2E+06           (X_U4A.x_lm358.b)-9.121E+06               

(X_U3B.x_lm358.10)    3.3453          (X_U3B.x_lm358.11)     .0392              

(X_U3B.x_lm358.12)     .0401          (X_U3B.x_lm358.13)    3.3316              

(X_U3B.x_lm358.14)    3.3312          (X_U3B.x_lm358.53)    3.5000              

(X_U3B.x_lm358.54)     .8220          (X_U3B.x_lm358.90)    -.0055              

(X_U3B.x_lm358.91)   40.0000          (X_U3B.x_lm358.92)  -40.0000              

(X_U3B.x_lm358.99)    2.5000          (X_U4A.x_lm358.10)    3.3152              

(X_U4A.x_lm358.11)     .0697          (X_U4A.x_lm358.12)     .0095              

(X_U4A.x_lm358.13)    3.2908          (X_U4A.x_lm358.14)    3.3119              

(X_U4A.x_lm358.53)    3.5000          (X_U4A.x_lm358.54)     .8220              

(X_U4A.x_lm358.90) 312.1E-06          (X_U4A.x_lm358.91)   40.0000              

(X_U4A.x_lm358.92)  -40.0000          (X_U4A.x_lm358.99)    2.5000          


**** Interrupt ****
**** Param: RELTOL = 0.001
**** Param: ABSTOL = 1e-012
**** Param: VNTOL = 1e-006
**** Param: GMIN = 1e-012
**** Param: TSTOP = 0.5
**** Param: TMAX = 1
**** Param: ITL1 = 150
**** Param: ITL2 = 20
**** Param: ITL4 = 10

 **** Published Runtime Parameters *****************************
                                                               
                                       ABSTOL =      1.0000E-12
                                     C_C10.ic =      0.0000E+00
                                  C_C10.value =      1.0000E-06
                                     C_C12.ic =      0.0000E+00
                                  C_C12.value =      1.0000E-10
                                     C_C13.ic =      0.0000E+00
                                  C_C13.value =      1.0000E-07
                                     C_C14.ic =      0.0000E+00
                                  C_C14.value =      1.0000E-07
                                     C_C15.ic =      0.0000E+00
                                  C_C15.value =      1.0000E-09
                                      C_C3.ic =      0.0000E+00
                                   C_C3.value =      1.2000E-08
                                      C_C4.ic =      0.0000E+00
                                   C_C4.value =      1.0000E-09
                                      C_C6.ic =      0.0000E+00
                                   C_C6.value =      3.9000E-08
                                    D_D2.area =      1.0000E+00
                                      D_D2.ic =      0.0000E+00
                                    D_D3.area =      1.0000E+00
                                      D_D3.ic =      0.0000E+00
                                         GMIN =      1.0000E-12
                                         ITL1 =      1.5000E+02
                                         ITL2 =      2.0000E+01
                                         ITL4 =      1.0000E+01
                                    R_R10.tc1 =      0.0000E+00
                                    R_R10.tc2 =      0.0000E+00
                                  R_R10.value =      3.3200E+02
                                    R_R12.tc1 =      0.0000E+00
                                    R_R12.tc2 =      0.0000E+00
                                  R_R12.value =      2.0000E+04
                                    R_R13.tc1 =      0.0000E+00
                                    R_R13.tc2 =      0.0000E+00
                                  R_R13.value =      2.0000E+04
                                    R_R14.tc1 =      0.0000E+00
                                    R_R14.tc2 =      0.0000E+00
                                  R_R14.value =      1.0000E+06
                                    R_R16.tc1 =      0.0000E+00
                                    R_R16.tc2 =      0.0000E+00
                                  R_R16.value =      2.5500E+05
                                    R_R17.tc1 =      0.0000E+00
                                    R_R17.tc2 =      0.0000E+00
                                  R_R17.value =      2.5500E+05
                                     R_R4.tc1 =      0.0000E+00
                                     R_R4.tc2 =      0.0000E+00
                                   R_R4.value =      6.4900E+05
                                     R_R5.tc1 =      0.0000E+00
                                     R_R5.tc2 =      0.0000E+00
                                   R_R5.value =      6.4900E+05
                                       RELTOL =      1.0000E-03
                                       RUNFOR =      0.0000E+00
                                         TMAX =      1.0000E+00
                                        TSTOP =      5.0000E-01
                                      V_V1.ac =      0.0000E+00
                                 V_V1.acphase =      0.0000E+00
                                      V_V1.dc =      1.0000E+00
                                      V_V2.ac =      0.0000E+00
                                 V_V2.acphase =      0.0000E+00
                                      V_V2.dc =      5.0000E+00
                                        VNTOL =      1.0000E-06
                          X_U3B.x_lm358.c1.ic =      0.0000E+00
                       X_U3B.x_lm358.c1.value =      2.8870E-12
                          X_U3B.x_lm358.c2.ic =      0.0000E+00
                       X_U3B.x_lm358.c2.value =      3.0000E-11
                        X_U3B.x_lm358.dc.area =      1.0000E+00
                          X_U3B.x_lm358.dc.ic =      0.0000E+00
                        X_U3B.x_lm358.de.area =      1.0000E+00
                          X_U3B.x_lm358.de.ic =      0.0000E+00
                       X_U3B.x_lm358.dln.area =      1.0000E+00
                         X_U3B.x_lm358.dln.ic =      0.0000E+00
                       X_U3B.x_lm358.dlp.area =      1.0000E+00
                         X_U3B.x_lm358.dlp.ic =      0.0000E+00
                        X_U3B.x_lm358.dp.area =      1.0000E+00
                          X_U3B.x_lm358.dp.ic =      0.0000E+00
                      X_U3B.x_lm358.fneg.gain =     -1.0000E+00
                      X_U3B.x_lm358.fpos.gain =      1.0000E+00
                        X_U3B.x_lm358.ga.gain =      1.8850E-04
                       X_U3B.x_lm358.gcm.gain =      5.9610E-08
                      X_U3B.x_lm358.hlim.gain =      1.0000E+03
                         X_U3B.x_lm358.iee.ac =      0.0000E+00
                    X_U3B.x_lm358.iee.acphase =      0.0000E+00
                         X_U3B.x_lm358.iee.dc =      1.5090E-05
                         X_U3B.x_lm358.r2.tc1 =      0.0000E+00
                         X_U3B.x_lm358.r2.tc2 =      0.0000E+00
                       X_U3B.x_lm358.r2.value =      1.0000E+05
                        X_U3B.x_lm358.rc1.tc1 =      0.0000E+00
                        X_U3B.x_lm358.rc1.tc2 =      0.0000E+00
                      X_U3B.x_lm358.rc1.value =      5.3050E+03
                        X_U3B.x_lm358.rc2.tc1 =      0.0000E+00
                        X_U3B.x_lm358.rc2.tc2 =      0.0000E+00
                      X_U3B.x_lm358.rc2.value =      5.3050E+03
                        X_U3B.x_lm358.re1.tc1 =      0.0000E+00
                        X_U3B.x_lm358.re1.tc2 =      0.0000E+00
                      X_U3B.x_lm358.re1.value =      1.8450E+03
                        X_U3B.x_lm358.re2.tc1 =      0.0000E+00
                        X_U3B.x_lm358.re2.tc2 =      0.0000E+00
                      X_U3B.x_lm358.re2.value =      1.8450E+03
                        X_U3B.x_lm358.ree.tc1 =      0.0000E+00
                        X_U3B.x_lm358.ree.tc2 =      0.0000E+00
                      X_U3B.x_lm358.ree.value =      1.3250E+07
                        X_U3B.x_lm358.ro1.tc1 =      0.0000E+00
                        X_U3B.x_lm358.ro1.tc2 =      0.0000E+00
                      X_U3B.x_lm358.ro1.value =      5.0000E+01
                        X_U3B.x_lm358.ro2.tc1 =      0.0000E+00
                        X_U3B.x_lm358.ro2.tc2 =      0.0000E+00
                      X_U3B.x_lm358.ro2.value =      2.5000E+01
                         X_U3B.x_lm358.rp.tc1 =      0.0000E+00
                         X_U3B.x_lm358.rp.tc2 =      0.0000E+00
                       X_U3B.x_lm358.rp.value =      9.0820E+03
                          X_U3B.x_lm358.vb.ac =      0.0000E+00
                     X_U3B.x_lm358.vb.acphase =      0.0000E+00
                          X_U3B.x_lm358.vb.dc =      0.0000E+00
                          X_U3B.x_lm358.vc.ac =      0.0000E+00
                     X_U3B.x_lm358.vc.acphase =      0.0000E+00
                          X_U3B.x_lm358.vc.dc =      1.5000E+00
                          X_U3B.x_lm358.ve.ac =      0.0000E+00
                     X_U3B.x_lm358.ve.acphase =      0.0000E+00
                          X_U3B.x_lm358.ve.dc =      8.2200E-01
                        X_U3B.x_lm358.vlim.ac =      0.0000E+00
                   X_U3B.x_lm358.vlim.acphase =      0.0000E+00
                        X_U3B.x_lm358.vlim.dc =      0.0000E+00
                         X_U3B.x_lm358.vln.ac =      0.0000E+00
                    X_U3B.x_lm358.vln.acphase =      0.0000E+00
                         X_U3B.x_lm358.vln.dc =      4.0000E+01
                         X_U3B.x_lm358.vlp.ac =      0.0000E+00
                    X_U3B.x_lm358.vlp.acphase =      0.0000E+00
                         X_U3B.x_lm358.vlp.dc =      4.0000E+01
                          X_U4A.x_lm358.c1.ic =      0.0000E+00
                       X_U4A.x_lm358.c1.value =      2.8870E-12
                          X_U4A.x_lm358.c2.ic =      0.0000E+00
                       X_U4A.x_lm358.c2.value =      3.0000E-11
                        X_U4A.x_lm358.dc.area =      1.0000E+00
                          X_U4A.x_lm358.dc.ic =      0.0000E+00
                        X_U4A.x_lm358.de.area =      1.0000E+00
                          X_U4A.x_lm358.de.ic =      0.0000E+00
                       X_U4A.x_lm358.dln.area =      1.0000E+00
                         X_U4A.x_lm358.dln.ic =      0.0000E+00
                       X_U4A.x_lm358.dlp.area =      1.0000E+00
                         X_U4A.x_lm358.dlp.ic =      0.0000E+00
                        X_U4A.x_lm358.dp.area =      1.0000E+00
                          X_U4A.x_lm358.dp.ic =      0.0000E+00
                      X_U4A.x_lm358.fneg.gain =     -1.0000E+00
                      X_U4A.x_lm358.fpos.gain =      1.0000E+00
                        X_U4A.x_lm358.ga.gain =      1.8850E-04
                       X_U4A.x_lm358.gcm.gain =      5.9610E-08
                      X_U4A.x_lm358.hlim.gain =      1.0000E+03
                         X_U4A.x_lm358.iee.ac =      0.0000E+00
                    X_U4A.x_lm358.iee.acphase =      0.0000E+00
                         X_U4A.x_lm358.iee.dc =      1.5090E-05
                         X_U4A.x_lm358.r2.tc1 =      0.0000E+00
                         X_U4A.x_lm358.r2.tc2 =      0.0000E+00
                       X_U4A.x_lm358.r2.value =      1.0000E+05
                        X_U4A.x_lm358.rc1.tc1 =      0.0000E+00
                        X_U4A.x_lm358.rc1.tc2 =      0.0000E+00
                      X_U4A.x_lm358.rc1.value =      5.3050E+03
                        X_U4A.x_lm358.rc2.tc1 =      0.0000E+00
                        X_U4A.x_lm358.rc2.tc2 =      0.0000E+00
                      X_U4A.x_lm358.rc2.value =      5.3050E+03
                        X_U4A.x_lm358.re1.tc1 =      0.0000E+00
                        X_U4A.x_lm358.re1.tc2 =      0.0000E+00
                      X_U4A.x_lm358.re1.value =      1.8450E+03
                        X_U4A.x_lm358.re2.tc1 =      0.0000E+00
                        X_U4A.x_lm358.re2.tc2 =      0.0000E+00
                      X_U4A.x_lm358.re2.value =      1.8450E+03
                        X_U4A.x_lm358.ree.tc1 =      0.0000E+00
                        X_U4A.x_lm358.ree.tc2 =      0.0000E+00
                      X_U4A.x_lm358.ree.value =      1.3250E+07
                        X_U4A.x_lm358.ro1.tc1 =      0.0000E+00
                        X_U4A.x_lm358.ro1.tc2 =      0.0000E+00
                      X_U4A.x_lm358.ro1.value =      5.0000E+01
                        X_U4A.x_lm358.ro2.tc1 =      0.0000E+00
                        X_U4A.x_lm358.ro2.tc2 =      0.0000E+00
                      X_U4A.x_lm358.ro2.value =      2.5000E+01
                         X_U4A.x_lm358.rp.tc1 =      0.0000E+00
                         X_U4A.x_lm358.rp.tc2 =      0.0000E+00
                       X_U4A.x_lm358.rp.value =      9.0820E+03
                          X_U4A.x_lm358.vb.ac =      0.0000E+00
                     X_U4A.x_lm358.vb.acphase =      0.0000E+00
                          X_U4A.x_lm358.vb.dc =      0.0000E+00
                          X_U4A.x_lm358.vc.ac =      0.0000E+00
                     X_U4A.x_lm358.vc.acphase =      0.0000E+00
                          X_U4A.x_lm358.vc.dc =      1.5000E+00
                          X_U4A.x_lm358.ve.ac =      0.0000E+00
                     X_U4A.x_lm358.ve.acphase =      0.0000E+00
                          X_U4A.x_lm358.ve.dc =      8.2200E-01
                        X_U4A.x_lm358.vlim.ac =      0.0000E+00
                   X_U4A.x_lm358.vlim.acphase =      0.0000E+00
                        X_U4A.x_lm358.vlim.dc =      0.0000E+00
                         X_U4A.x_lm358.vln.ac =      0.0000E+00
                    X_U4A.x_lm358.vln.acphase =      0.0000E+00
                         X_U4A.x_lm358.vln.dc =      4.0000E+01
                         X_U4A.x_lm358.vlp.ac =      0.0000E+00
                    X_U4A.x_lm358.vlp.acphase =      0.0000E+00
                         X_U4A.x_lm358.vlp.dc =      4.0000E+01
                                               
               

ERROR -- Convergence problem in transient analysis at Time =  .499
         Time step =  212.9E-15, minimum allowable step size =  500.0E-15

  These voltages failed to converge:

    V(X_U4A.x_lm358.a)        =  -419.23MV  \   105.06MV
    V(X_U4A.x_lm358.b)        =   -9.121MV  \    2.286MV

  These supply currents failed to converge:

    I(V_V2)                   =    144.01A  \    -74.46A
    I(X_U3B.x_lm358.vc)       =    52.69nA  \    52.96nA
    I(X_U3B.x_lm358.ve)       =   -41.19nA  \   -41.40nA

ERROR -- Discontinuing simulation due to convergence problem


  Last node voltages tried were:

 NODE   VOLTAGE     NODE   VOLTAGE     NODE   VOLTAGE     NODE   VOLTAGE


(   +V)    5.0000  (N20508)    2.7372 (N38290)   -2.8332 (N57891)    2.7252     

(N57895)    2.7552 (N57931)    2.7552 (N57943)    2.6824 (N58063)     .2822     

(N58221)    2.7381 (N58453)    2.6655 (N61779)    1.8447                        

(X_U3B.x_lm358.6)-41.93E-06           (X_U3B.x_lm358.7)    2.7249               

(X_U3B.x_lm358.8)    2.7249           (X_U3B.x_lm358.9)    0.0000               

(X_U3B.x_lm358.a) 5.965E-06           (X_U3B.x_lm358.b) 5.465E-06               

(X_U4A.x_lm358.6) 404.9E-06           (X_U4A.x_lm358.7)     .2822               

(X_U4A.x_lm358.8)     .2822           (X_U4A.x_lm358.9)    0.0000               

(X_U4A.x_lm358.a)-419.2E+06           (X_U4A.x_lm358.b)-9.121E+06               

(X_U3B.x_lm358.10)    3.3453          (X_U3B.x_lm358.11)     .0392              

(X_U3B.x_lm358.12)     .0401          (X_U3B.x_lm358.13)    3.3316              

(X_U3B.x_lm358.14)    3.3312          (X_U3B.x_lm358.53)    3.5000              

(X_U3B.x_lm358.54)     .8220          (X_U3B.x_lm358.90)    -.0055              

(X_U3B.x_lm358.91)   40.0000          (X_U3B.x_lm358.92)  -40.0000              

(X_U3B.x_lm358.99)    2.5000          (X_U4A.x_lm358.10)    3.3152              

(X_U4A.x_lm358.11)     .0697          (X_U4A.x_lm358.12)     .0095              

(X_U4A.x_lm358.13)    3.2908          (X_U4A.x_lm358.14)    3.3119              

(X_U4A.x_lm358.53)    3.5000          (X_U4A.x_lm358.54)     .8220              

(X_U4A.x_lm358.90) 312.1E-06          (X_U4A.x_lm358.91)   40.0000              

(X_U4A.x_lm358.92)  -40.0000          (X_U4A.x_lm358.99)    2.5000          


**** Interrupt ****
**** Param: RELTOL = 0.001
**** Param: ABSTOL = 1e-012
**** Param: VNTOL = 1e-006
**** Param: GMIN = 1e-012
**** Param: TSTOP = 0.5
**** Param: TMAX = 1
**** Param: ITL1 = 150
**** Param: ITL2 = 20
**** Param: ITL4 = 10

 **** Published Runtime Parameters *****************************
                                                               
                                       ABSTOL =      1.0000E-12
                                     C_C10.ic =      0.0000E+00
                                  C_C10.value =      1.0000E-06
                                     C_C12.ic =      0.0000E+00
                                  C_C12.value =      1.0000E-10
                                     C_C13.ic =      0.0000E+00
                                  C_C13.value =      1.0000E-07
                                     C_C14.ic =      0.0000E+00
                                  C_C14.value =      1.0000E-07
                                     C_C15.ic =      0.0000E+00
                                  C_C15.value =      1.0000E-09
                                      C_C3.ic =      0.0000E+00
                                   C_C3.value =      1.2000E-08
                                      C_C4.ic =      0.0000E+00
                                   C_C4.value =      1.0000E-09
                                      C_C6.ic =      0.0000E+00
                                   C_C6.value =      3.9000E-08
                                    D_D2.area =      1.0000E+00
                                      D_D2.ic =      0.0000E+00
                                    D_D3.area =      1.0000E+00
                                      D_D3.ic =      0.0000E+00
                                         GMIN =      1.0000E-12
                                         ITL1 =      1.5000E+02
                                         ITL2 =      2.0000E+01
                                         ITL4 =      1.0000E+01
                                    R_R10.tc1 =      0.0000E+00
                                    R_R10.tc2 =      0.0000E+00
                                  R_R10.value =      3.3200E+02
                                    R_R12.tc1 =      0.0000E+00
                                    R_R12.tc2 =      0.0000E+00
                                  R_R12.value =      2.0000E+04
                                    R_R13.tc1 =      0.0000E+00
                                    R_R13.tc2 =      0.0000E+00
                                  R_R13.value =      2.0000E+04
                                    R_R14.tc1 =      0.0000E+00
                                    R_R14.tc2 =      0.0000E+00
                                  R_R14.value =      1.0000E+06
                                    R_R16.tc1 =      0.0000E+00
                                    R_R16.tc2 =      0.0000E+00
                                  R_R16.value =      2.5500E+05
                                    R_R17.tc1 =      0.0000E+00
                                    R_R17.tc2 =      0.0000E+00
                                  R_R17.value =      2.5500E+05
                                     R_R4.tc1 =      0.0000E+00
                                     R_R4.tc2 =      0.0000E+00
                                   R_R4.value =      6.4900E+05
                                     R_R5.tc1 =      0.0000E+00
                                     R_R5.tc2 =      0.0000E+00
                                   R_R5.value =      6.4900E+05
                                       RELTOL =      1.0000E-03
                                       RUNFOR =      0.0000E+00
                                         TMAX =      1.0000E+00
                                        TSTOP =      5.0000E-01
                                      V_V1.ac =      0.0000E+00
                                 V_V1.acphase =      0.0000E+00
                                      V_V1.dc =      1.0000E+00
                                      V_V2.ac =      0.0000E+00
                                 V_V2.acphase =      0.0000E+00
                                      V_V2.dc =      5.0000E+00
                                        VNTOL =      1.0000E-06
                          X_U3B.x_lm358.c1.ic =      0.0000E+00
                       X_U3B.x_lm358.c1.value =      2.8870E-12
                          X_U3B.x_lm358.c2.ic =      0.0000E+00
                       X_U3B.x_lm358.c2.value =      3.0000E-11
                        X_U3B.x_lm358.dc.area =      1.0000E+00
                          X_U3B.x_lm358.dc.ic =      0.0000E+00
                        X_U3B.x_lm358.de.area =      1.0000E+00
                          X_U3B.x_lm358.de.ic =      0.0000E+00
                       X_U3B.x_lm358.dln.area =      1.0000E+00
                         X_U3B.x_lm358.dln.ic =      0.0000E+00
                       X_U3B.x_lm358.dlp.area =      1.0000E+00
                         X_U3B.x_lm358.dlp.ic =      0.0000E+00
                        X_U3B.x_lm358.dp.area =      1.0000E+00
                          X_U3B.x_lm358.dp.ic =      0.0000E+00
                      X_U3B.x_lm358.fneg.gain =     -1.0000E+00
                      X_U3B.x_lm358.fpos.gain =      1.0000E+00
                        X_U3B.x_lm358.ga.gain =      1.8850E-04
                       X_U3B.x_lm358.gcm.gain =      5.9610E-08
                      X_U3B.x_lm358.hlim.gain =      1.0000E+03
                         X_U3B.x_lm358.iee.ac =      0.0000E+00
                    X_U3B.x_lm358.iee.acphase =      0.0000E+00
                         X_U3B.x_lm358.iee.dc =      1.5090E-05
                         X_U3B.x_lm358.r2.tc1 =      0.0000E+00
                         X_U3B.x_lm358.r2.tc2 =      0.0000E+00
                       X_U3B.x_lm358.r2.value =      1.0000E+05
                        X_U3B.x_lm358.rc1.tc1 =      0.0000E+00
                        X_U3B.x_lm358.rc1.tc2 =      0.0000E+00
                      X_U3B.x_lm358.rc1.value =      5.3050E+03
                        X_U3B.x_lm358.rc2.tc1 =      0.0000E+00
                        X_U3B.x_lm358.rc2.tc2 =      0.0000E+00
                      X_U3B.x_lm358.rc2.value =      5.3050E+03
                        X_U3B.x_lm358.re1.tc1 =      0.0000E+00
                        X_U3B.x_lm358.re1.tc2 =      0.0000E+00
                      X_U3B.x_lm358.re1.value =      1.8450E+03
                        X_U3B.x_lm358.re2.tc1 =      0.0000E+00
                        X_U3B.x_lm358.re2.tc2 =      0.0000E+00
                      X_U3B.x_lm358.re2.value =      1.8450E+03
                        X_U3B.x_lm358.ree.tc1 =      0.0000E+00
                        X_U3B.x_lm358.ree.tc2 =      0.0000E+00
                      X_U3B.x_lm358.ree.value =      1.3250E+07
                        X_U3B.x_lm358.ro1.tc1 =      0.0000E+00
                        X_U3B.x_lm358.ro1.tc2 =      0.0000E+00
                      X_U3B.x_lm358.ro1.value =      5.0000E+01
                        X_U3B.x_lm358.ro2.tc1 =      0.0000E+00
                        X_U3B.x_lm358.ro2.tc2 =      0.0000E+00
                      X_U3B.x_lm358.ro2.value =      2.5000E+01
                         X_U3B.x_lm358.rp.tc1 =      0.0000E+00
                         X_U3B.x_lm358.rp.tc2 =      0.0000E+00
                       X_U3B.x_lm358.rp.value =      9.0820E+03
                          X_U3B.x_lm358.vb.ac =      0.0000E+00
                     X_U3B.x_lm358.vb.acphase =      0.0000E+00
                          X_U3B.x_lm358.vb.dc =      0.0000E+00
                          X_U3B.x_lm358.vc.ac =      0.0000E+00
                     X_U3B.x_lm358.vc.acphase =      0.0000E+00
                          X_U3B.x_lm358.vc.dc =      1.5000E+00
                          X_U3B.x_lm358.ve.ac =      0.0000E+00
                     X_U3B.x_lm358.ve.acphase =      0.0000E+00
                          X_U3B.x_lm358.ve.dc =      8.2200E-01
                        X_U3B.x_lm358.vlim.ac =      0.0000E+00
                   X_U3B.x_lm358.vlim.acphase =      0.0000E+00
                        X_U3B.x_lm358.vlim.dc =      0.0000E+00
                         X_U3B.x_lm358.vln.ac =      0.0000E+00
                    X_U3B.x_lm358.vln.acphase =      0.0000E+00
                         X_U3B.x_lm358.vln.dc =      4.0000E+01
                         X_U3B.x_lm358.vlp.ac =      0.0000E+00
                    X_U3B.x_lm358.vlp.acphase =      0.0000E+00
                         X_U3B.x_lm358.vlp.dc =      4.0000E+01
                          X_U4A.x_lm358.c1.ic =      0.0000E+00
                       X_U4A.x_lm358.c1.value =      2.8870E-12
                          X_U4A.x_lm358.c2.ic =      0.0000E+00
                       X_U4A.x_lm358.c2.value =      3.0000E-11
                        X_U4A.x_lm358.dc.area =      1.0000E+00
                          X_U4A.x_lm358.dc.ic =      0.0000E+00
                        X_U4A.x_lm358.de.area =      1.0000E+00
                          X_U4A.x_lm358.de.ic =      0.0000E+00
                       X_U4A.x_lm358.dln.area =      1.0000E+00
                         X_U4A.x_lm358.dln.ic =      0.0000E+00
                       X_U4A.x_lm358.dlp.area =      1.0000E+00
                         X_U4A.x_lm358.dlp.ic =      0.0000E+00
                        X_U4A.x_lm358.dp.area =      1.0000E+00
                          X_U4A.x_lm358.dp.ic =      0.0000E+00
                      X_U4A.x_lm358.fneg.gain =     -1.0000E+00
                      X_U4A.x_lm358.fpos.gain =      1.0000E+00
                        X_U4A.x_lm358.ga.gain =      1.8850E-04
                       X_U4A.x_lm358.gcm.gain =      5.9610E-08
                      X_U4A.x_lm358.hlim.gain =      1.0000E+03
                         X_U4A.x_lm358.iee.ac =      0.0000E+00
                    X_U4A.x_lm358.iee.acphase =      0.0000E+00
                         X_U4A.x_lm358.iee.dc =      1.5090E-05
                         X_U4A.x_lm358.r2.tc1 =      0.0000E+00
                         X_U4A.x_lm358.r2.tc2 =      0.0000E+00
                       X_U4A.x_lm358.r2.value =      1.0000E+05
                        X_U4A.x_lm358.rc1.tc1 =      0.0000E+00
                        X_U4A.x_lm358.rc1.tc2 =      0.0000E+00
                      X_U4A.x_lm358.rc1.value =      5.3050E+03
                        X_U4A.x_lm358.rc2.tc1 =      0.0000E+00
                        X_U4A.x_lm358.rc2.tc2 =      0.0000E+00
                      X_U4A.x_lm358.rc2.value =      5.3050E+03
                        X_U4A.x_lm358.re1.tc1 =      0.0000E+00
                        X_U4A.x_lm358.re1.tc2 =      0.0000E+00
                      X_U4A.x_lm358.re1.value =      1.8450E+03
                        X_U4A.x_lm358.re2.tc1 =      0.0000E+00
                        X_U4A.x_lm358.re2.tc2 =      0.0000E+00
                      X_U4A.x_lm358.re2.value =      1.8450E+03
                        X_U4A.x_lm358.ree.tc1 =      0.0000E+00
                        X_U4A.x_lm358.ree.tc2 =      0.0000E+00
                      X_U4A.x_lm358.ree.value =      1.3250E+07
                        X_U4A.x_lm358.ro1.tc1 =      0.0000E+00
                        X_U4A.x_lm358.ro1.tc2 =      0.0000E+00
                      X_U4A.x_lm358.ro1.value =      5.0000E+01
                        X_U4A.x_lm358.ro2.tc1 =      0.0000E+00
                        X_U4A.x_lm358.ro2.tc2 =      0.0000E+00
                      X_U4A.x_lm358.ro2.value =      2.5000E+01
                         X_U4A.x_lm358.rp.tc1 =      0.0000E+00
                         X_U4A.x_lm358.rp.tc2 =      0.0000E+00
                       X_U4A.x_lm358.rp.value =      9.0820E+03
                          X_U4A.x_lm358.vb.ac =      0.0000E+00
                     X_U4A.x_lm358.vb.acphase =      0.0000E+00
                          X_U4A.x_lm358.vb.dc =      0.0000E+00
                          X_U4A.x_lm358.vc.ac =      0.0000E+00
                     X_U4A.x_lm358.vc.acphase =      0.0000E+00
                          X_U4A.x_lm358.vc.dc =      1.5000E+00
                          X_U4A.x_lm358.ve.ac =      0.0000E+00
                     X_U4A.x_lm358.ve.acphase =      0.0000E+00
                          X_U4A.x_lm358.ve.dc =      8.2200E-01
                        X_U4A.x_lm358.vlim.ac =      0.0000E+00
                   X_U4A.x_lm358.vlim.acphase =      0.0000E+00
                        X_U4A.x_lm358.vlim.dc =      0.0000E+00
                         X_U4A.x_lm358.vln.ac =      0.0000E+00
                    X_U4A.x_lm358.vln.acphase =      0.0000E+00
                         X_U4A.x_lm358.vln.dc =      4.0000E+01
                         X_U4A.x_lm358.vlp.ac =      0.0000E+00
                    X_U4A.x_lm358.vlp.acphase =      0.0000E+00
                         X_U4A.x_lm358.vlp.dc =      4.0000E+01
                                               
               

ERROR -- Convergence problem in transient analysis at Time =  .499
         Time step =  212.9E-15, minimum allowable step size =  500.0E-15

  These voltages failed to converge:

    V(X_U4A.x_lm358.a)        =  -419.23MV  \   105.06MV
    V(X_U4A.x_lm358.b)        =   -9.121MV  \    2.286MV

  These supply currents failed to converge:

    I(V_V2)                   =    144.01A  \    -74.46A
    I(X_U3B.x_lm358.vc)       =    52.69nA  \    52.96nA
    I(X_U3B.x_lm358.ve)       =   -41.19nA  \   -41.40nA

ERROR -- Discontinuing simulation due to convergence problem


  Last node voltages tried were:

 NODE   VOLTAGE     NODE   VOLTAGE     NODE   VOLTAGE     NODE   VOLTAGE


(   +V)    5.0000  (N20508)    2.7372 (N38290)   -2.8332 (N57891)    2.7252     

(N57895)    2.7552 (N57931)    2.7552 (N57943)    2.6824 (N58063)     .2822     

(N58221)    2.7381 (N58453)    2.6655 (N61779)    1.8447                        

(X_U3B.x_lm358.6)-41.93E-06           (X_U3B.x_lm358.7)    2.7249               

(X_U3B.x_lm358.8)    2.7249           (X_U3B.x_lm358.9)    0.0000               

(X_U3B.x_lm358.a) 5.965E-06           (X_U3B.x_lm358.b) 5.465E-06               

(X_U4A.x_lm358.6) 404.9E-06           (X_U4A.x_lm358.7)     .2822               

(X_U4A.x_lm358.8)     .2822           (X_U4A.x_lm358.9)    0.0000               

(X_U4A.x_lm358.a)-419.2E+06           (X_U4A.x_lm358.b)-9.121E+06               

(X_U3B.x_lm358.10)    3.3453          (X_U3B.x_lm358.11)     .0392              

(X_U3B.x_lm358.12)     .0401          (X_U3B.x_lm358.13)    3.3316              

(X_U3B.x_lm358.14)    3.3312          (X_U3B.x_lm358.53)    3.5000              

(X_U3B.x_lm358.54)     .8220          (X_U3B.x_lm358.90)    -.0055              

(X_U3B.x_lm358.91)   40.0000          (X_U3B.x_lm358.92)  -40.0000              

(X_U3B.x_lm358.99)    2.5000          (X_U4A.x_lm358.10)    3.3152              

(X_U4A.x_lm358.11)     .0697          (X_U4A.x_lm358.12)     .0095              

(X_U4A.x_lm358.13)    3.2908          (X_U4A.x_lm358.14)    3.3119              

(X_U4A.x_lm358.53)    3.5000          (X_U4A.x_lm358.54)     .8220              

(X_U4A.x_lm358.90) 312.1E-06          (X_U4A.x_lm358.91)   40.0000              

(X_U4A.x_lm358.92)  -40.0000          (X_U4A.x_lm358.99)    2.5000          


**** Interrupt ****
**** Param: RELTOL = 0.001
**** Param: ABSTOL = 1e-012
**** Param: VNTOL = 1e-006
**** Param: GMIN = 1e-012
**** Param: TSTOP = 0.5
**** Param: TMAX = 1
**** Param: ITL1 = 150
**** Param: ITL2 = 20
**** Param: ITL4 = 10

 **** Published Runtime Parameters *****************************
                                                               
                                       ABSTOL =      1.0000E-12
                                     C_C10.ic =      0.0000E+00
                                  C_C10.value =      1.0000E-06
                                     C_C12.ic =      0.0000E+00
                                  C_C12.value =      1.0000E-10
                                     C_C13.ic =      0.0000E+00
                                  C_C13.value =      1.0000E-07
                                     C_C14.ic =      0.0000E+00
                                  C_C14.value =      1.0000E-07
                                     C_C15.ic =      0.0000E+00
                                  C_C15.value =      1.0000E-09
                                      C_C3.ic =      0.0000E+00
                                   C_C3.value =      1.2000E-08
                                      C_C4.ic =      0.0000E+00
                                   C_C4.value =      1.0000E-09
                                      C_C6.ic =      0.0000E+00
                                   C_C6.value =      3.9000E-08
                                    D_D2.area =      1.0000E+00
                                      D_D2.ic =      0.0000E+00
                                    D_D3.area =      1.0000E+00
                                      D_D3.ic =      0.0000E+00
                                         GMIN =      1.0000E-12
                                         ITL1 =      1.5000E+02
                                         ITL2 =      2.0000E+01
                                         ITL4 =      1.0000E+01
                                    R_R10.tc1 =      0.0000E+00
                                    R_R10.tc2 =      0.0000E+00
                                  R_R10.value =      3.3200E+02
                                    R_R12.tc1 =      0.0000E+00
                                    R_R12.tc2 =      0.0000E+00
                                  R_R12.value =      2.0000E+04
                                    R_R13.tc1 =      0.0000E+00
                                    R_R13.tc2 =      0.0000E+00
                                  R_R13.value =      2.0000E+04
                                    R_R14.tc1 =      0.0000E+00
                                    R_R14.tc2 =      0.0000E+00
                                  R_R14.value =      1.0000E+06
                                    R_R16.tc1 =      0.0000E+00
                                    R_R16.tc2 =      0.0000E+00
                                  R_R16.value =      2.5500E+05
                                    R_R17.tc1 =      0.0000E+00
                                    R_R17.tc2 =      0.0000E+00
                                  R_R17.value =      2.5500E+05
                                     R_R4.tc1 =      0.0000E+00
                                     R_R4.tc2 =      0.0000E+00
                                   R_R4.value =      6.4900E+05
                                     R_R5.tc1 =      0.0000E+00
                                     R_R5.tc2 =      0.0000E+00
                                   R_R5.value =      6.4900E+05
                                       RELTOL =      1.0000E-03
                                       RUNFOR =      0.0000E+00
                                         TMAX =      1.0000E+00
                                        TSTOP =      5.0000E-01
                                      V_V1.ac =      0.0000E+00
                                 V_V1.acphase =      0.0000E+00
                                      V_V1.dc =      1.0000E+00
                                      V_V2.ac =      0.0000E+00
                                 V_V2.acphase =      0.0000E+00
                                      V_V2.dc =      5.0000E+00
                                        VNTOL =      1.0000E-06
                          X_U3B.x_lm358.c1.ic =      0.0000E+00
                       X_U3B.x_lm358.c1.value =      2.8870E-12
                          X_U3B.x_lm358.c2.ic =      0.0000E+00
                       X_U3B.x_lm358.c2.value =      3.0000E-11
                        X_U3B.x_lm358.dc.area =      1.0000E+00
                          X_U3B.x_lm358.dc.ic =      0.0000E+00
                        X_U3B.x_lm358.de.area =      1.0000E+00
                          X_U3B.x_lm358.de.ic =      0.0000E+00
                       X_U3B.x_lm358.dln.area =      1.0000E+00
                         X_U3B.x_lm358.dln.ic =      0.0000E+00
                       X_U3B.x_lm358.dlp.area =      1.0000E+00
                         X_U3B.x_lm358.dlp.ic =      0.0000E+00
                        X_U3B.x_lm358.dp.area =      1.0000E+00
                          X_U3B.x_lm358.dp.ic =      0.0000E+00
                      X_U3B.x_lm358.fneg.gain =     -1.0000E+00
                      X_U3B.x_lm358.fpos.gain =      1.0000E+00
                        X_U3B.x_lm358.ga.gain =      1.8850E-04
                       X_U3B.x_lm358.gcm.gain =      5.9610E-08
                      X_U3B.x_lm358.hlim.gain =      1.0000E+03
                         X_U3B.x_lm358.iee.ac =      0.0000E+00
                    X_U3B.x_lm358.iee.acphase =      0.0000E+00
                         X_U3B.x_lm358.iee.dc =      1.5090E-05
                         X_U3B.x_lm358.r2.tc1 =      0.0000E+00
                         X_U3B.x_lm358.r2.tc2 =      0.0000E+00
                       X_U3B.x_lm358.r2.value =      1.0000E+05
                        X_U3B.x_lm358.rc1.tc1 =      0.0000E+00
                        X_U3B.x_lm358.rc1.tc2 =      0.0000E+00
                      X_U3B.x_lm358.rc1.value =      5.3050E+03
                        X_U3B.x_lm358.rc2.tc1 =      0.0000E+00
                        X_U3B.x_lm358.rc2.tc2 =      0.0000E+00
                      X_U3B.x_lm358.rc2.value =      5.3050E+03
                        X_U3B.x_lm358.re1.tc1 =      0.0000E+00
                        X_U3B.x_lm358.re1.tc2 =      0.0000E+00
                      X_U3B.x_lm358.re1.value =      1.8450E+03
                        X_U3B.x_lm358.re2.tc1 =      0.0000E+00
                        X_U3B.x_lm358.re2.tc2 =      0.0000E+00
                      X_U3B.x_lm358.re2.value =      1.8450E+03
                        X_U3B.x_lm358.ree.tc1 =      0.0000E+00
                        X_U3B.x_lm358.ree.tc2 =      0.0000E+00
                      X_U3B.x_lm358.ree.value =      1.3250E+07
                        X_U3B.x_lm358.ro1.tc1 =      0.0000E+00
                        X_U3B.x_lm358.ro1.tc2 =      0.0000E+00
                      X_U3B.x_lm358.ro1.value =      5.0000E+01
                        X_U3B.x_lm358.ro2.tc1 =      0.0000E+00
                        X_U3B.x_lm358.ro2.tc2 =      0.0000E+00
                      X_U3B.x_lm358.ro2.value =      2.5000E+01
                         X_U3B.x_lm358.rp.tc1 =      0.0000E+00
                         X_U3B.x_lm358.rp.tc2 =      0.0000E+00
                       X_U3B.x_lm358.rp.value =      9.0820E+03
                          X_U3B.x_lm358.vb.ac =      0.0000E+00
                     X_U3B.x_lm358.vb.acphase =      0.0000E+00
                          X_U3B.x_lm358.vb.dc =      0.0000E+00
                          X_U3B.x_lm358.vc.ac =      0.0000E+00
                     X_U3B.x_lm358.vc.acphase =      0.0000E+00
                          X_U3B.x_lm358.vc.dc =      1.5000E+00
                          X_U3B.x_lm358.ve.ac =      0.0000E+00
                     X_U3B.x_lm358.ve.acphase =      0.0000E+00
                          X_U3B.x_lm358.ve.dc =      8.2200E-01
                        X_U3B.x_lm358.vlim.ac =      0.0000E+00
                   X_U3B.x_lm358.vlim.acphase =      0.0000E+00
                        X_U3B.x_lm358.vlim.dc =      0.0000E+00
                         X_U3B.x_lm358.vln.ac =      0.0000E+00
                    X_U3B.x_lm358.vln.acphase =      0.0000E+00
                         X_U3B.x_lm358.vln.dc =      4.0000E+01
                         X_U3B.x_lm358.vlp.ac =      0.0000E+00
                    X_U3B.x_lm358.vlp.acphase =      0.0000E+00
                         X_U3B.x_lm358.vlp.dc =      4.0000E+01
                          X_U4A.x_lm358.c1.ic =      0.0000E+00
                       X_U4A.x_lm358.c1.value =      2.8870E-12
                          X_U4A.x_lm358.c2.ic =      0.0000E+00
                       X_U4A.x_lm358.c2.value =      3.0000E-11
                        X_U4A.x_lm358.dc.area =      1.0000E+00
                          X_U4A.x_lm358.dc.ic =      0.0000E+00
                        X_U4A.x_lm358.de.area =      1.0000E+00
                          X_U4A.x_lm358.de.ic =      0.0000E+00
                       X_U4A.x_lm358.dln.area =      1.0000E+00
                         X_U4A.x_lm358.dln.ic =      0.0000E+00
                       X_U4A.x_lm358.dlp.area =      1.0000E+00
                         X_U4A.x_lm358.dlp.ic =      0.0000E+00
                        X_U4A.x_lm358.dp.area =      1.0000E+00
                          X_U4A.x_lm358.dp.ic =      0.0000E+00
                      X_U4A.x_lm358.fneg.gain =     -1.0000E+00
                      X_U4A.x_lm358.fpos.gain =      1.0000E+00
                        X_U4A.x_lm358.ga.gain =      1.8850E-04
                       X_U4A.x_lm358.gcm.gain =      5.9610E-08
                      X_U4A.x_lm358.hlim.gain =      1.0000E+03
                         X_U4A.x_lm358.iee.ac =      0.0000E+00
                    X_U4A.x_lm358.iee.acphase =      0.0000E+00
                         X_U4A.x_lm358.iee.dc =      1.5090E-05
                         X_U4A.x_lm358.r2.tc1 =      0.0000E+00
                         X_U4A.x_lm358.r2.tc2 =      0.0000E+00
                       X_U4A.x_lm358.r2.value =      1.0000E+05
                        X_U4A.x_lm358.rc1.tc1 =      0.0000E+00
                        X_U4A.x_lm358.rc1.tc2 =      0.0000E+00
                      X_U4A.x_lm358.rc1.value =      5.3050E+03
                        X_U4A.x_lm358.rc2.tc1 =      0.0000E+00
                        X_U4A.x_lm358.rc2.tc2 =      0.0000E+00
                      X_U4A.x_lm358.rc2.value =      5.3050E+03
                        X_U4A.x_lm358.re1.tc1 =      0.0000E+00
                        X_U4A.x_lm358.re1.tc2 =      0.0000E+00
                      X_U4A.x_lm358.re1.value =      1.8450E+03
                        X_U4A.x_lm358.re2.tc1 =      0.0000E+00
                        X_U4A.x_lm358.re2.tc2 =      0.0000E+00
                      X_U4A.x_lm358.re2.value =      1.8450E+03
                        X_U4A.x_lm358.ree.tc1 =      0.0000E+00
                        X_U4A.x_lm358.ree.tc2 =      0.0000E+00
                      X_U4A.x_lm358.ree.value =      1.3250E+07
                        X_U4A.x_lm358.ro1.tc1 =      0.0000E+00
                        X_U4A.x_lm358.ro1.tc2 =      0.0000E+00
                      X_U4A.x_lm358.ro1.value =      5.0000E+01
                        X_U4A.x_lm358.ro2.tc1 =      0.0000E+00
                        X_U4A.x_lm358.ro2.tc2 =      0.0000E+00
                      X_U4A.x_lm358.ro2.value =      2.5000E+01
                         X_U4A.x_lm358.rp.tc1 =      0.0000E+00
                         X_U4A.x_lm358.rp.tc2 =      0.0000E+00
                       X_U4A.x_lm358.rp.value =      9.0820E+03
                          X_U4A.x_lm358.vb.ac =      0.0000E+00
                     X_U4A.x_lm358.vb.acphase =      0.0000E+00
                          X_U4A.x_lm358.vb.dc =      0.0000E+00
                          X_U4A.x_lm358.vc.ac =      0.0000E+00
                     X_U4A.x_lm358.vc.acphase =      0.0000E+00
                          X_U4A.x_lm358.vc.dc =      1.5000E+00
                          X_U4A.x_lm358.ve.ac =      0.0000E+00
                     X_U4A.x_lm358.ve.acphase =      0.0000E+00
                          X_U4A.x_lm358.ve.dc =      8.2200E-01
                        X_U4A.x_lm358.vlim.ac =      0.0000E+00
                   X_U4A.x_lm358.vlim.acphase =      0.0000E+00
                        X_U4A.x_lm358.vlim.dc =      0.0000E+00
                         X_U4A.x_lm358.vln.ac =      0.0000E+00
                    X_U4A.x_lm358.vln.acphase =      0.0000E+00
                         X_U4A.x_lm358.vln.dc =      4.0000E+01
                         X_U4A.x_lm358.vlp.ac =      0.0000E+00
                    X_U4A.x_lm358.vlp.acphase =      0.0000E+00
                         X_U4A.x_lm358.vlp.dc =      4.0000E+01
                                               
               

ERROR -- Convergence problem in transient analysis at Time =  .499
         Time step =  212.9E-15, minimum allowable step size =  500.0E-15

  These voltages failed to converge:

    V(X_U4A.x_lm358.a)        =  -419.23MV  \   105.06MV
    V(X_U4A.x_lm358.b)        =   -9.121MV  \    2.286MV

  These supply currents failed to converge:

    I(V_V2)                   =    144.01A  \    -74.46A
    I(X_U3B.x_lm358.vc)       =    52.69nA  \    52.96nA
    I(X_U3B.x_lm358.ve)       =   -41.19nA  \   -41.40nA

ERROR -- Discontinuing simulation due to convergence problem


  Last node voltages tried were:

 NODE   VOLTAGE     NODE   VOLTAGE     NODE   VOLTAGE     NODE   VOLTAGE


(   +V)    5.0000  (N20508)    2.7372 (N38290)   -2.8332 (N57891)    2.7252     

(N57895)    2.7552 (N57931)    2.7552 (N57943)    2.6824 (N58063)     .2822     

(N58221)    2.7381 (N58453)    2.6655 (N61779)    1.8447                        

(X_U3B.x_lm358.6)-41.93E-06           (X_U3B.x_lm358.7)    2.7249               

(X_U3B.x_lm358.8)    2.7249           (X_U3B.x_lm358.9)    0.0000               

(X_U3B.x_lm358.a) 5.965E-06           (X_U3B.x_lm358.b) 5.465E-06               

(X_U4A.x_lm358.6) 404.9E-06           (X_U4A.x_lm358.7)     .2822               

(X_U4A.x_lm358.8)     .2822           (X_U4A.x_lm358.9)    0.0000               

(X_U4A.x_lm358.a)-419.2E+06           (X_U4A.x_lm358.b)-9.121E+06               

(X_U3B.x_lm358.10)    3.3453          (X_U3B.x_lm358.11)     .0392              

(X_U3B.x_lm358.12)     .0401          (X_U3B.x_lm358.13)    3.3316              

(X_U3B.x_lm358.14)    3.3312          (X_U3B.x_lm358.53)    3.5000              

(X_U3B.x_lm358.54)     .8220          (X_U3B.x_lm358.90)    -.0055              

(X_U3B.x_lm358.91)   40.0000          (X_U3B.x_lm358.92)  -40.0000              

(X_U3B.x_lm358.99)    2.5000          (X_U4A.x_lm358.10)    3.3152              

(X_U4A.x_lm358.11)     .0697          (X_U4A.x_lm358.12)     .0095              

(X_U4A.x_lm358.13)    3.2908          (X_U4A.x_lm358.14)    3.3119              

(X_U4A.x_lm358.53)    3.5000          (X_U4A.x_lm358.54)     .8220              

(X_U4A.x_lm358.90) 312.1E-06          (X_U4A.x_lm358.91)   40.0000              

(X_U4A.x_lm358.92)  -40.0000          (X_U4A.x_lm358.99)    2.5000          


**** Interrupt ****
**** Param: RELTOL = 0.001
**** Param: ABSTOL = 1e-012
**** Param: VNTOL = 1e-006
**** Param: GMIN = 1e-012
**** Param: TSTOP = 0.5
**** Param: TMAX = 1
**** Param: ITL1 = 150
**** Param: ITL2 = 20
**** Param: ITL4 = 10

 **** Published Runtime Parameters *****************************
                                                               
                                       ABSTOL =      1.0000E-12
                                     C_C10.ic =      0.0000E+00
                                  C_C10.value =      1.0000E-06
                                     C_C12.ic =      0.0000E+00
                                  C_C12.value =      1.0000E-10
                                     C_C13.ic =      0.0000E+00
                                  C_C13.value =      1.0000E-07
                                     C_C14.ic =      0.0000E+00
                                  C_C14.value =      1.0000E-07
                                     C_C15.ic =      0.0000E+00
                                  C_C15.value =      1.0000E-09
                                      C_C3.ic =      0.0000E+00
                                   C_C3.value =      1.2000E-08
                                      C_C4.ic =      0.0000E+00
                                   C_C4.value =      1.0000E-09
                                      C_C6.ic =      0.0000E+00
                                   C_C6.value =      3.9000E-08
                                    D_D2.area =      1.0000E+00
                                      D_D2.ic =      0.0000E+00
                                    D_D3.area =      1.0000E+00
                                      D_D3.ic =      0.0000E+00
                                         GMIN =      1.0000E-12
                                         ITL1 =      1.5000E+02
                                         ITL2 =      2.0000E+01
                                         ITL4 =      1.0000E+01
                                    R_R10.tc1 =      0.0000E+00
                                    R_R10.tc2 =      0.0000E+00
                                  R_R10.value =      3.3200E+02
                                    R_R12.tc1 =      0.0000E+00
                                    R_R12.tc2 =      0.0000E+00
                                  R_R12.value =      2.0000E+04
                                    R_R13.tc1 =      0.0000E+00
                                    R_R13.tc2 =      0.0000E+00
                                  R_R13.value =      2.0000E+04
                                    R_R14.tc1 =      0.0000E+00
                                    R_R14.tc2 =      0.0000E+00
                                  R_R14.value =      1.0000E+06
                                    R_R16.tc1 =      0.0000E+00
                                    R_R16.tc2 =      0.0000E+00
                                  R_R16.value =      2.5500E+05
                                    R_R17.tc1 =      0.0000E+00
                                    R_R17.tc2 =      0.0000E+00
                                  R_R17.value =      2.5500E+05
                                     R_R4.tc1 =      0.0000E+00
                                     R_R4.tc2 =      0.0000E+00
                                   R_R4.value =      6.4900E+05
                                     R_R5.tc1 =      0.0000E+00
                                     R_R5.tc2 =      0.0000E+00
                                   R_R5.value =      6.4900E+05
                                       RELTOL =      1.0000E-03
                                       RUNFOR =      0.0000E+00
                                         TMAX =      1.0000E+00
                                        TSTOP =      5.0000E-01
                                      V_V1.ac =      0.0000E+00
                                 V_V1.acphase =      0.0000E+00
                                      V_V1.dc =      1.0000E+00
                                      V_V2.ac =      0.0000E+00
                                 V_V2.acphase =      0.0000E+00
                                      V_V2.dc =      5.0000E+00
                                        VNTOL =      1.0000E-06
                          X_U3B.x_lm358.c1.ic =      0.0000E+00
                       X_U3B.x_lm358.c1.value =      2.8870E-12
                          X_U3B.x_lm358.c2.ic =      0.0000E+00
                       X_U3B.x_lm358.c2.value =      3.0000E-11
                        X_U3B.x_lm358.dc.area =      1.0000E+00
                          X_U3B.x_lm358.dc.ic =      0.0000E+00
                        X_U3B.x_lm358.de.area =      1.0000E+00
                          X_U3B.x_lm358.de.ic =      0.0000E+00
                       X_U3B.x_lm358.dln.area =      1.0000E+00
                         X_U3B.x_lm358.dln.ic =      0.0000E+00
                       X_U3B.x_lm358.dlp.area =      1.0000E+00
                         X_U3B.x_lm358.dlp.ic =      0.0000E+00
                        X_U3B.x_lm358.dp.area =      1.0000E+00
                          X_U3B.x_lm358.dp.ic =      0.0000E+00
                      X_U3B.x_lm358.fneg.gain =     -1.0000E+00
                      X_U3B.x_lm358.fpos.gain =      1.0000E+00
                        X_U3B.x_lm358.ga.gain =      1.8850E-04
                       X_U3B.x_lm358.gcm.gain =      5.9610E-08
                      X_U3B.x_lm358.hlim.gain =      1.0000E+03
                         X_U3B.x_lm358.iee.ac =      0.0000E+00
                    X_U3B.x_lm358.iee.acphase =      0.0000E+00
                         X_U3B.x_lm358.iee.dc =      1.5090E-05
                         X_U3B.x_lm358.r2.tc1 =      0.0000E+00
                         X_U3B.x_lm358.r2.tc2 =      0.0000E+00
                       X_U3B.x_lm358.r2.value =      1.0000E+05
                        X_U3B.x_lm358.rc1.tc1 =      0.0000E+00
                        X_U3B.x_lm358.rc1.tc2 =      0.0000E+00
                      X_U3B.x_lm358.rc1.value =      5.3050E+03
                        X_U3B.x_lm358.rc2.tc1 =      0.0000E+00
                        X_U3B.x_lm358.rc2.tc2 =      0.0000E+00
                      X_U3B.x_lm358.rc2.value =      5.3050E+03
                        X_U3B.x_lm358.re1.tc1 =      0.0000E+00
                        X_U3B.x_lm358.re1.tc2 =      0.0000E+00
                      X_U3B.x_lm358.re1.value =      1.8450E+03
                        X_U3B.x_lm358.re2.tc1 =      0.0000E+00
                        X_U3B.x_lm358.re2.tc2 =      0.0000E+00
                      X_U3B.x_lm358.re2.value =      1.8450E+03
                        X_U3B.x_lm358.ree.tc1 =      0.0000E+00
                        X_U3B.x_lm358.ree.tc2 =      0.0000E+00
                      X_U3B.x_lm358.ree.value =      1.3250E+07
                        X_U3B.x_lm358.ro1.tc1 =      0.0000E+00
                        X_U3B.x_lm358.ro1.tc2 =      0.0000E+00
                      X_U3B.x_lm358.ro1.value =      5.0000E+01
                        X_U3B.x_lm358.ro2.tc1 =      0.0000E+00
                        X_U3B.x_lm358.ro2.tc2 =      0.0000E+00
                      X_U3B.x_lm358.ro2.value =      2.5000E+01
                         X_U3B.x_lm358.rp.tc1 =      0.0000E+00
                         X_U3B.x_lm358.rp.tc2 =      0.0000E+00
                       X_U3B.x_lm358.rp.value =      9.0820E+03
                          X_U3B.x_lm358.vb.ac =      0.0000E+00
                     X_U3B.x_lm358.vb.acphase =      0.0000E+00
                          X_U3B.x_lm358.vb.dc =      0.0000E+00
                          X_U3B.x_lm358.vc.ac =      0.0000E+00
                     X_U3B.x_lm358.vc.acphase =      0.0000E+00
                          X_U3B.x_lm358.vc.dc =      1.5000E+00
                          X_U3B.x_lm358.ve.ac =      0.0000E+00
                     X_U3B.x_lm358.ve.acphase =      0.0000E+00
                          X_U3B.x_lm358.ve.dc =      8.2200E-01
                        X_U3B.x_lm358.vlim.ac =      0.0000E+00
                   X_U3B.x_lm358.vlim.acphase =      0.0000E+00
                        X_U3B.x_lm358.vlim.dc =      0.0000E+00
                         X_U3B.x_lm358.vln.ac =      0.0000E+00
                    X_U3B.x_lm358.vln.acphase =      0.0000E+00
                         X_U3B.x_lm358.vln.dc =      4.0000E+01
                         X_U3B.x_lm358.vlp.ac =      0.0000E+00
                    X_U3B.x_lm358.vlp.acphase =      0.0000E+00
                         X_U3B.x_lm358.vlp.dc =      4.0000E+01
                          X_U4A.x_lm358.c1.ic =      0.0000E+00
                       X_U4A.x_lm358.c1.value =      2.8870E-12
                          X_U4A.x_lm358.c2.ic =      0.0000E+00
                       X_U4A.x_lm358.c2.value =      3.0000E-11
                        X_U4A.x_lm358.dc.area =      1.0000E+00
                          X_U4A.x_lm358.dc.ic =      0.0000E+00
                        X_U4A.x_lm358.de.area =      1.0000E+00
                          X_U4A.x_lm358.de.ic =      0.0000E+00
                       X_U4A.x_lm358.dln.area =      1.0000E+00
                         X_U4A.x_lm358.dln.ic =      0.0000E+00
                       X_U4A.x_lm358.dlp.area =      1.0000E+00
                         X_U4A.x_lm358.dlp.ic =      0.0000E+00
                        X_U4A.x_lm358.dp.area =      1.0000E+00
                          X_U4A.x_lm358.dp.ic =      0.0000E+00
                      X_U4A.x_lm358.fneg.gain =     -1.0000E+00
                      X_U4A.x_lm358.fpos.gain =      1.0000E+00
                        X_U4A.x_lm358.ga.gain =      1.8850E-04
                       X_U4A.x_lm358.gcm.gain =      5.9610E-08
                      X_U4A.x_lm358.hlim.gain =      1.0000E+03
                         X_U4A.x_lm358.iee.ac =      0.0000E+00
                    X_U4A.x_lm358.iee.acphase =      0.0000E+00
                         X_U4A.x_lm358.iee.dc =      1.5090E-05
                         X_U4A.x_lm358.r2.tc1 =      0.0000E+00
                         X_U4A.x_lm358.r2.tc2 =      0.0000E+00
                       X_U4A.x_lm358.r2.value =      1.0000E+05
                        X_U4A.x_lm358.rc1.tc1 =      0.0000E+00
                        X_U4A.x_lm358.rc1.tc2 =      0.0000E+00
                      X_U4A.x_lm358.rc1.value =      5.3050E+03
                        X_U4A.x_lm358.rc2.tc1 =      0.0000E+00
                        X_U4A.x_lm358.rc2.tc2 =      0.0000E+00
                      X_U4A.x_lm358.rc2.value =      5.3050E+03
                        X_U4A.x_lm358.re1.tc1 =      0.0000E+00
                        X_U4A.x_lm358.re1.tc2 =      0.0000E+00
                      X_U4A.x_lm358.re1.value =      1.8450E+03
                        X_U4A.x_lm358.re2.tc1 =      0.0000E+00
                        X_U4A.x_lm358.re2.tc2 =      0.0000E+00
                      X_U4A.x_lm358.re2.value =      1.8450E+03
                        X_U4A.x_lm358.ree.tc1 =      0.0000E+00
                        X_U4A.x_lm358.ree.tc2 =      0.0000E+00
                      X_U4A.x_lm358.ree.value =      1.3250E+07
                        X_U4A.x_lm358.ro1.tc1 =      0.0000E+00
                        X_U4A.x_lm358.ro1.tc2 =      0.0000E+00
                      X_U4A.x_lm358.ro1.value =      5.0000E+01
                        X_U4A.x_lm358.ro2.tc1 =      0.0000E+00
                        X_U4A.x_lm358.ro2.tc2 =      0.0000E+00
                      X_U4A.x_lm358.ro2.value =      2.5000E+01
                         X_U4A.x_lm358.rp.tc1 =      0.0000E+00
                         X_U4A.x_lm358.rp.tc2 =      0.0000E+00
                       X_U4A.x_lm358.rp.value =      9.0820E+03
                          X_U4A.x_lm358.vb.ac =      0.0000E+00
                     X_U4A.x_lm358.vb.acphase =      0.0000E+00
                          X_U4A.x_lm358.vb.dc =      0.0000E+00
                          X_U4A.x_lm358.vc.ac =      0.0000E+00
                     X_U4A.x_lm358.vc.acphase =      0.0000E+00
                          X_U4A.x_lm358.vc.dc =      1.5000E+00
                          X_U4A.x_lm358.ve.ac =      0.0000E+00
                     X_U4A.x_lm358.ve.acphase =      0.0000E+00
                          X_U4A.x_lm358.ve.dc =      8.2200E-01
                        X_U4A.x_lm358.vlim.ac =      0.0000E+00
                   X_U4A.x_lm358.vlim.acphase =      0.0000E+00
                        X_U4A.x_lm358.vlim.dc =      0.0000E+00
                         X_U4A.x_lm358.vln.ac =      0.0000E+00
                    X_U4A.x_lm358.vln.acphase =      0.0000E+00
                         X_U4A.x_lm358.vln.dc =      4.0000E+01
                         X_U4A.x_lm358.vlp.ac =      0.0000E+00
                    X_U4A.x_lm358.vlp.acphase =      0.0000E+00
                         X_U4A.x_lm358.vlp.dc =      4.0000E+01
                                               
               

ERROR -- Convergence problem in transient analysis at Time =  .499
         Time step =  212.9E-15, minimum allowable step size =  500.0E-15

  These voltages failed to converge:

    V(X_U4A.x_lm358.a)        =  -419.23MV  \   105.06MV
    V(X_U4A.x_lm358.b)        =   -9.121MV  \    2.286MV

  These supply currents failed to converge:

    I(V_V2)                   =    144.01A  \    -74.46A
    I(X_U3B.x_lm358.vc)       =    52.69nA  \    52.96nA
    I(X_U3B.x_lm358.ve)       =   -41.19nA  \   -41.40nA

ERROR -- Discontinuing simulation due to convergence problem


  Last node voltages tried were:

 NODE   VOLTAGE     NODE   VOLTAGE     NODE   VOLTAGE     NODE   VOLTAGE


(   +V)    5.0000  (N20508)    2.7372 (N38290)   -2.8332 (N57891)    2.7252     

(N57895)    2.7552 (N57931)    2.7552 (N57943)    2.6824 (N58063)     .2822     

(N58221)    2.7381 (N58453)    2.6655 (N61779)    1.8447                        

(X_U3B.x_lm358.6)-41.93E-06           (X_U3B.x_lm358.7)    2.7249               

(X_U3B.x_lm358.8)    2.7249           (X_U3B.x_lm358.9)    0.0000               

(X_U3B.x_lm358.a) 5.965E-06           (X_U3B.x_lm358.b) 5.465E-06               

(X_U4A.x_lm358.6) 404.9E-06           (X_U4A.x_lm358.7)     .2822               

(X_U4A.x_lm358.8)     .2822           (X_U4A.x_lm358.9)    0.0000               

(X_U4A.x_lm358.a)-419.2E+06           (X_U4A.x_lm358.b)-9.121E+06               

(X_U3B.x_lm358.10)    3.3453          (X_U3B.x_lm358.11)     .0392              

(X_U3B.x_lm358.12)     .0401          (X_U3B.x_lm358.13)    3.3316              

(X_U3B.x_lm358.14)    3.3312          (X_U3B.x_lm358.53)    3.5000              

(X_U3B.x_lm358.54)     .8220          (X_U3B.x_lm358.90)    -.0055              

(X_U3B.x_lm358.91)   40.0000          (X_U3B.x_lm358.92)  -40.0000              

(X_U3B.x_lm358.99)    2.5000          (X_U4A.x_lm358.10)    3.3152              

(X_U4A.x_lm358.11)     .0697          (X_U4A.x_lm358.12)     .0095              

(X_U4A.x_lm358.13)    3.2908          (X_U4A.x_lm358.14)    3.3119              

(X_U4A.x_lm358.53)    3.5000          (X_U4A.x_lm358.54)     .8220              

(X_U4A.x_lm358.90) 312.1E-06          (X_U4A.x_lm358.91)   40.0000              

(X_U4A.x_lm358.92)  -40.0000          (X_U4A.x_lm358.99)    2.5000          


**** Interrupt ****
